<?xml version="1.0" encoding="UTF-8"?>

<!-- generated on 09.03.2017 17:44:46 by Netedit Version 0.29.0
<?xml version="1.0" encoding="UTF-8"?>

<configuration xmlns:xsi="http://www.w3.org/2001/XMLSchema-instance" xsi:noNamespaceSchemaLocation="http://sumo.dlr.de/xsd/netedit.exeConfiguration.xsd">

    <input>
        <sumo-net-file value="C:\Users\ga76saz\Desktop\LLCM\07_Papers\MT-ITS%202017_Big%20Data%20and%20ITS\SumoNet\A9.net.xml"/>
    </input>

    <output>
        <output-file value="C:\Users\ga76saz\Desktop\LLCM\07_Papers\MT-ITS%202017_Big%20Data%20and%20ITS\SumoNet\A9.net.xml"/>
    </output>

    <processing>
        <no-turnarounds value="true"/>
        <offset.disable-normalization value="true"/>
        <lefthand value="false"/>
        <junctions.corner-detail value="0"/>
    </processing>

</configuration>
-->

<net version="0.27" xmlns:xsi="http://www.w3.org/2001/XMLSchema-instance" xsi:noNamespaceSchemaLocation="http://sumo.dlr.de/xsd/net_file.xsd">

    <location netOffset="-690108.79,-5352714.83" convBoundary="0.00,0.00,5555.72,17047.23" origBoundary="11.492093,48.298587,11.747239,48.456761" projParameter="+proj=utm +zone=32 +ellps=WGS84 +datum=WGS84 +units=m +no_defs"/>

    <edge id=":1065448779_0" function="internal">
        <lane id=":1065448779_0_0" index="0" allow="private emergency authority army vip passenger hov taxi bus coach delivery truck trailer motorcycle evehicle custom1 custom2" speed="25.00" length="7.55" shape="4666.24,2465.85 4664.34,2464.73 4662.83,2464.32 4661.31,2463.92 4659.39,2462.82"/>
    </edge>
    <edge id=":1065448779_1" function="internal">
        <lane id=":1065448779_1_0" index="0" allow="private emergency authority army vip passenger hov taxi bus coach delivery truck trailer motorcycle evehicle custom1 custom2" speed="25.00" length="8.16" shape="4668.26,2463.25 4666.23,2462.01 4664.62,2461.51 4663.00,2461.02 4660.95,2459.79"/>
        <lane id=":1065448779_1_1" index="1" allow="private emergency authority army vip passenger hov taxi bus coach delivery truck trailer motorcycle evehicle custom1 custom2" speed="25.00" length="8.16" shape="4670.29,2460.65 4668.25,2459.40 4666.63,2458.90 4665.02,2458.40 4662.96,2457.17"/>
    </edge>
    <edge id=":1065448799_0" function="internal">
        <lane id=":1065448799_0_0" index="0" allow="private emergency authority army vip passenger hov taxi bus coach delivery truck trailer motorcycle evehicle custom1 custom2" speed="22.22" length="12.77" shape="4079.46,2406.74 4077.72,2409.44 4076.22,2411.65 4074.73,2414.16 4073.03,2417.74"/>
    </edge>
    <edge id=":1065448799_1" function="internal">
        <lane id=":1065448799_1_0" index="0" allow="private emergency authority army vip passenger hov taxi bus coach delivery truck trailer motorcycle evehicle custom1 custom2" speed="22.22" length="12.98" shape="4076.43,2405.19 4074.72,2408.63 4073.23,2410.82 4071.73,2413.01 4070.00,2416.44"/>
        <lane id=":1065448799_1_1" index="1" allow="private emergency authority army vip passenger hov taxi bus coach delivery truck trailer motorcycle evehicle custom1 custom2" speed="22.22" length="12.98" shape="4073.39,2403.90 4071.68,2407.33 4070.19,2409.52 4068.70,2411.71 4066.97,2415.14"/>
    </edge>
    <edge id=":1188831364_0" function="internal">
        <lane id=":1188831364_0_0" index="0" allow="private emergency authority army vip passenger hov taxi bus coach delivery truck trailer motorcycle evehicle custom1 custom2" speed="16.66" length="0.10" shape="4229.92,2042.19 4229.96,2042.10"/>
        <lane id=":1188831364_0_1" index="1" allow="private emergency authority army vip passenger hov taxi bus coach delivery truck trailer motorcycle evehicle custom1 custom2" speed="16.66" length="0.10" shape="4226.96,2040.71 4226.92,2040.80"/>
    </edge>
    <edge id=":129141_0" function="internal">
        <lane id=":129141_0_0" index="0" allow="private emergency authority army vip passenger hov taxi bus coach delivery truck trailer motorcycle evehicle custom1 custom2" speed="36.11" length="3.51" shape="3624.67,1613.35 3625.55,1613.72 3626.32,1613.60 3627.09,1613.47 3627.99,1613.83"/>
        <lane id=":129141_0_1" index="1" allow="private emergency authority army vip passenger hov taxi bus coach delivery truck trailer motorcycle evehicle custom1 custom2" speed="36.11" length="3.51" shape="3622.63,1615.94 3623.53,1616.32 3624.31,1616.21 3625.09,1616.09 3626.00,1616.46"/>
    </edge>
    <edge id=":129141_2" function="internal">
        <lane id=":129141_2_0" index="0" allow="private emergency authority army vip passenger hov taxi bus coach delivery truck trailer motorcycle evehicle custom1 custom2" speed="59.72" length="1.67" shape="3620.59,1618.54 3621.62,1617.22"/>
        <lane id=":129141_2_1" index="1" allow="private emergency authority army vip passenger hov taxi bus coach delivery truck trailer motorcycle evehicle custom1 custom2" speed="59.72" length="1.67" shape="3618.55,1621.13 3619.58,1619.82"/>
    </edge>
    <edge id=":1315471690_0" function="internal">
        <lane id=":1315471690_0_0" index="0" allow="private emergency authority army vip passenger hov taxi bus coach delivery truck trailer motorcycle evehicle custom1 custom2" speed="44.44" length="3.50" shape="3068.27,4818.82 3068.13,4819.81 3068.42,4820.55 3068.71,4821.29 3068.55,4822.27"/>
        <lane id=":1315471690_0_1" index="1" allow="private emergency authority army vip passenger hov taxi bus coach delivery truck trailer motorcycle evehicle custom1 custom2" speed="44.44" length="3.50" shape="3065.24,4817.51 3065.10,4818.48 3065.40,4819.22 3065.70,4819.95 3065.54,4820.92"/>
        <lane id=":1315471690_0_2" index="2" allow="private emergency authority army vip passenger hov taxi bus coach delivery truck trailer motorcycle evehicle custom1 custom2" speed="44.44" length="3.50" shape="3062.22,4816.20 3062.08,4817.16 3062.38,4817.89 3062.68,4818.61 3062.53,4819.57"/>
        <lane id=":1315471690_0_3" index="3" allow="private emergency authority army vip passenger hov taxi bus coach delivery truck trailer motorcycle evehicle custom1 custom2" speed="44.44" length="3.50" shape="3059.19,4814.89 3059.52,4818.22"/>
    </edge>
    <edge id=":1352865087_0" function="internal">
        <lane id=":1352865087_0_0" index="0" disallow="tram rail_urban rail rail_electric ship" speed="20.84" length="0.31" shape="2285.87,3954.34 2285.81,3954.65"/>
    </edge>
    <edge id=":1352865087_1" function="internal">
        <lane id=":1352865087_1_0" index="0" disallow="tram rail_urban rail rail_electric ship" speed="20.84" length="0.27" shape="2282.57,3954.02 2282.62,3953.75"/>
    </edge>
    <edge id=":135586674-AddedOffRampNode_0" function="internal">
        <lane id=":135586674-AddedOffRampNode_0_0" index="0" allow="private emergency authority army vip passenger hov taxi bus coach delivery truck trailer motorcycle evehicle custom1 custom2" speed="44.44" length="3.36" shape="2158.03,9351.68 2154.65,9348.83"/>
        <lane id=":135586674-AddedOffRampNode_0_1" index="1" allow="private emergency authority army vip passenger hov taxi bus coach delivery truck trailer motorcycle evehicle custom1 custom2" speed="44.44" length="3.36" shape="2158.03,9351.68 2157.95,9348.68"/>
        <lane id=":135586674-AddedOffRampNode_0_2" index="2" allow="private emergency authority army vip passenger hov taxi bus coach delivery truck trailer motorcycle evehicle custom1 custom2" speed="44.44" length="3.36" shape="2161.33,9351.54 2161.24,9348.54"/>
        <lane id=":135586674-AddedOffRampNode_0_3" index="3" allow="private emergency authority army vip passenger hov taxi bus coach delivery truck trailer motorcycle evehicle custom1 custom2" speed="44.44" length="3.36" shape="2164.62,9351.39 2164.54,9348.40"/>
    </edge>
    <edge id=":138551_0" function="internal">
        <lane id=":138551_0_0" index="0" allow="private emergency authority army vip passenger hov taxi bus coach delivery truck trailer motorcycle evehicle custom1 custom2" speed="29.16" length="0.26" shape="3783.13,1723.72 3783.38,1723.91"/>
        <lane id=":138551_0_1" index="1" allow="private emergency authority army vip passenger hov taxi bus coach delivery truck trailer motorcycle evehicle custom1 custom2" speed="29.16" length="0.26" shape="3781.18,1726.38 3781.35,1726.51"/>
    </edge>
    <edge id=":138552_0" function="internal">
        <lane id=":138552_0_0" index="0" allow="private emergency authority army vip passenger hov taxi bus coach delivery truck trailer motorcycle evehicle custom1 custom2" speed="16.67" length="6.21" shape="3965.19,1866.08 3966.72,1866.66 3968.01,1866.22 3969.37,1865.68 3971.11,1865.92"/>
    </edge>
    <edge id=":138552_1" function="internal">
        <lane id=":138552_1_0" index="0" allow="private emergency authority army vip passenger hov taxi bus coach delivery truck trailer motorcycle evehicle custom1 custom2" speed="16.67" length="5.01" shape="3965.19,1866.08 3969.29,1868.92"/>
        <lane id=":138552_1_1" index="1" allow="private emergency authority army vip passenger hov taxi bus coach delivery truck trailer motorcycle evehicle custom1 custom2" speed="16.67" length="5.01" shape="3963.14,1868.67 3967.28,1871.54"/>
    </edge>
    <edge id=":138553_0" function="internal">
        <lane id=":138553_0_0" index="0" allow="private emergency authority army vip passenger hov taxi bus coach delivery truck trailer motorcycle evehicle custom1 custom2" speed="13.89" length="8.61" shape="4061.61,1935.20 4062.81,1937.45 4063.77,1938.93 4065.00,1940.20 4066.97,1941.80"/>
    </edge>
    <edge id=":138553_1" function="internal">
        <lane id=":138553_1_0" index="0" allow="private emergency authority army vip passenger hov taxi bus coach delivery truck trailer motorcycle evehicle custom1 custom2" speed="16.67" length="8.93" shape="4058.93,1937.83 4060.86,1939.61 4061.94,1941.10 4063.01,1942.60 4064.93,1944.40"/>
        <lane id=":138553_1_1" index="1" allow="private emergency authority army vip passenger hov taxi bus coach delivery truck trailer motorcycle evehicle custom1 custom2" speed="16.67" length="8.93" shape="4056.92,1940.44 4058.84,1942.22 4059.92,1943.71 4060.98,1945.20 4062.90,1947.00"/>
    </edge>
    <edge id=":138554_0" function="internal">
        <lane id=":138554_0_0" index="0" allow="private emergency authority army vip passenger hov taxi bus coach delivery truck trailer motorcycle evehicle custom1 custom2" speed="16.67" length="8.04" shape="4258.84,2094.84 4260.89,2095.17 4262.44,2093.41 4264.11,2091.45 4266.51,2091.14"/>
        <lane id=":138554_0_1" index="1" allow="private emergency authority army vip passenger hov taxi bus coach delivery truck trailer motorcycle evehicle custom1 custom2" speed="16.67" length="8.04" shape="4258.84,2094.84 4260.45,2095.40 4261.80,2094.80 4263.23,2094.05 4265.10,2094.13"/>
    </edge>
    <edge id=":138554_2" function="internal">
        <lane id=":138554_2_0" index="0" allow="private emergency authority army vip passenger hov taxi bus coach delivery truck trailer motorcycle evehicle custom1 custom2" speed="16.67" length="5.08" shape="4258.84,2094.84 4260.08,2095.66 4261.04,2096.06 4262.00,2096.44 4263.26,2097.23"/>
        <lane id=":138554_2_1" index="1" allow="private emergency authority army vip passenger hov taxi bus coach delivery truck trailer motorcycle evehicle custom1 custom2" speed="16.67" length="5.08" shape="4256.80,2097.43 4258.06,2098.27 4259.02,2098.67 4260.00,2099.07 4261.28,2099.87"/>
    </edge>
    <edge id=":138555_0" function="internal">
        <lane id=":138555_0_0" index="0" allow="private emergency authority army vip passenger hov taxi bus coach delivery truck trailer motorcycle evehicle custom1 custom2" speed="13.89" length="0.10" shape="4289.35,2097.44 4289.26,2097.42"/>
        <lane id=":138555_0_1" index="1" allow="private emergency authority army vip passenger hov taxi bus coach delivery truck trailer motorcycle evehicle custom1 custom2" speed="13.89" length="0.10" shape="4288.63,2100.66 4288.72,2100.68"/>
    </edge>
    <edge id=":138560_0" function="internal">
        <lane id=":138560_0_0" index="0" allow="private emergency authority army vip passenger hov taxi bus coach delivery truck trailer motorcycle evehicle custom1 custom2" speed="11.11" length="5.11" shape="4290.99,1979.61 4289.56,1979.63 4288.52,1979.38 4287.54,1979.28 4286.25,1979.73"/>
        <lane id=":138560_0_1" index="1" allow="private emergency authority army vip passenger hov taxi bus coach delivery truck trailer motorcycle evehicle custom1 custom2" speed="11.11" length="5.11" shape="4289.92,1976.44 4288.33,1976.50 4287.19,1976.32 4286.10,1976.30 4284.67,1976.84"/>
    </edge>
    <edge id=":138560_2" function="internal">
        <lane id=":138560_2_0" index="0" allow="private emergency authority army vip passenger hov taxi bus coach delivery truck trailer motorcycle evehicle custom1 custom2" speed="11.11" length="5.38" shape="4288.26,1972.97 4286.86,1973.57 4285.72,1973.54 4284.56,1973.46 4283.08,1973.94"/>
    </edge>
    <edge id=":138561_0" function="internal">
        <lane id=":138561_0_0" index="0" allow="private emergency authority army vip passenger hov taxi bus coach delivery truck trailer motorcycle evehicle custom1 custom2" speed="16.67" length="19.59" shape="4166.75,2190.30 4164.61,2196.38 4163.54,2201.35 4163.00,2205.56 4162.43,2209.34"/>
    </edge>
    <edge id=":138561_1" function="internal">
        <lane id=":138561_1_0" index="0" allow="private emergency authority army vip passenger hov taxi bus coach delivery truck trailer motorcycle evehicle custom1 custom2" speed="16.67" length="19.55" shape="4166.75,2190.30 4159.11,2208.30"/>
        <lane id=":138561_1_1" index="1" allow="private emergency authority army vip passenger hov taxi bus coach delivery truck trailer motorcycle evehicle custom1 custom2" speed="16.67" length="19.55" shape="4163.72,2189.01 4156.07,2207.00"/>
    </edge>
    <edge id=":138563_0" function="internal">
        <lane id=":138563_0_0" index="0" allow="private emergency authority army vip passenger hov taxi bus coach delivery truck trailer motorcycle evehicle custom1 custom2" speed="13.89" length="0.10" shape="4192.19,2005.95 4192.19,2005.95"/>
    </edge>
    <edge id=":138570_0" function="internal">
        <lane id=":138570_0_0" index="0" allow="private emergency authority army vip passenger hov taxi bus coach delivery truck trailer motorcycle evehicle custom1 custom2" speed="19.45" length="0.27" shape="4438.21,2211.62 4438.38,2211.71"/>
        <lane id=":138570_0_1" index="1" allow="private emergency authority army vip passenger hov taxi bus coach delivery truck trailer motorcycle evehicle custom1 custom2" speed="19.45" length="0.27" shape="4436.64,2214.53 4436.95,2214.69"/>
    </edge>
    <edge id=":138574_0" function="internal">
        <lane id=":138574_0_0" index="0" allow="private emergency authority army vip passenger hov taxi bus coach delivery truck trailer motorcycle evehicle custom1 custom2" speed="22.22" length="7.66" shape="4702.06,2432.20 4703.19,2434.18 4703.95,2435.58 4704.90,2436.80 4706.59,2438.28"/>
    </edge>
    <edge id=":138574_1" function="internal">
        <lane id=":138574_1_0" index="0" allow="private emergency authority army vip passenger hov taxi bus coach delivery truck trailer motorcycle evehicle custom1 custom2" speed="22.22" length="8.20" shape="4699.33,2434.66 4701.05,2436.34 4701.95,2437.78 4702.84,2439.22 4704.57,2440.89"/>
        <lane id=":138574_1_1" index="1" allow="private emergency authority army vip passenger hov taxi bus coach delivery truck trailer motorcycle evehicle custom1 custom2" speed="22.22" length="8.20" shape="4697.30,2437.26 4699.02,2438.95 4699.92,2440.39 4700.82,2441.83 4702.55,2443.50"/>
    </edge>
    <edge id=":138575_0" function="internal">
        <lane id=":138575_0_0" index="0" allow="private emergency authority army vip passenger hov taxi bus coach delivery truck trailer motorcycle evehicle custom1 custom2" speed="19.45" length="7.18" shape="4883.01,2574.60 4884.77,2575.73 4886.14,2576.24 4887.57,2576.65 4889.52,2577.51"/>
    </edge>
    <edge id=":138575_1" function="internal">
        <lane id=":138575_1_0" index="0" allow="private emergency authority army vip passenger hov taxi bus coach delivery truck trailer motorcycle evehicle custom1 custom2" speed="25.00" length="7.96" shape="4880.99,2577.21 4882.98,2578.42 4884.55,2578.92 4886.12,2579.42 4888.11,2580.64"/>
        <lane id=":138575_1_1" index="1" allow="private emergency authority army vip passenger hov taxi bus coach delivery truck trailer motorcycle evehicle custom1 custom2" speed="25.00" length="7.96" shape="4878.97,2579.82 4880.96,2581.03 4882.53,2581.53 4884.10,2582.03 4886.09,2583.25"/>
    </edge>
    <edge id=":138578_0" function="internal">
        <lane id=":138578_0_0" index="0" allow="private emergency authority army vip passenger hov taxi bus coach delivery truck trailer motorcycle evehicle custom1 custom2" speed="22.22" length="15.82" shape="5012.82,2522.89 5011.80,2519.57 5010.38,2516.47 5009.01,2512.82 5008.17,2507.85"/>
    </edge>
    <edge id=":138578_1" function="internal">
        <lane id=":138578_1_0" index="0" allow="private emergency authority army vip passenger hov taxi bus coach delivery truck trailer motorcycle evehicle custom1 custom2" speed="22.22" length="11.74" shape="5014.73,2507.10 5015.25,2509.19 5016.16,2510.47 5017.15,2511.74 5017.89,2513.81"/>
        <lane id=":138578_1_1" index="1" allow="private emergency authority army vip passenger hov taxi bus coach delivery truck trailer motorcycle evehicle custom1 custom2" speed="22.22" length="11.74" shape="5011.45,2507.49 5012.23,2512.10 5013.48,2515.11 5014.89,2518.10 5016.13,2522.65"/>
    </edge>
    <edge id=":138578_3" function="internal">
        <lane id=":138578_3_0" index="0" allow="private emergency authority army vip passenger hov taxi bus coach delivery truck trailer motorcycle evehicle custom1 custom2" speed="19.45" length="14.80" shape="5006.26,2523.37 5006.32,2520.01 5005.96,2516.91 5005.42,2513.37 5004.92,2508.67"/>
    </edge>
    <edge id=":138620_0" function="internal">
        <lane id=":138620_0_0" index="0" allow="private emergency authority army vip passenger hov taxi bus coach delivery truck trailer motorcycle evehicle custom1 custom2" speed="22.22" length="5.46" shape="4056.82,2305.95 4056.98,2304.58 4056.48,2303.60 4055.88,2302.60 4055.76,2301.14"/>
        <lane id=":138620_0_1" index="1" allow="private emergency authority army vip passenger hov taxi bus coach delivery truck trailer motorcycle evehicle custom1 custom2" speed="22.22" length="5.46" shape="4059.88,2307.17 4060.12,2305.58 4059.67,2304.44 4059.11,2303.27 4059.02,2301.60"/>
    </edge>
    <edge id=":138620_2" function="internal">
        <lane id=":138620_2_0" index="0" allow="private emergency authority army vip passenger hov taxi bus coach delivery truck trailer motorcycle evehicle custom1 custom2" speed="19.45" length="6.04" shape="4062.95,2308.39 4063.16,2306.71 4062.66,2305.46 4062.17,2304.22 4062.44,2302.57"/>
    </edge>
    <edge id=":138627_0" function="internal">
        <lane id=":138627_0_0" index="0" allow="private emergency authority army vip passenger hov taxi bus coach delivery truck trailer motorcycle evehicle custom1 custom2" speed="33.33" length="7.85" shape="3419.83,3997.89 3419.03,4000.14 3418.46,4001.68 3418.06,4003.26 3417.80,4005.61"/>
        <lane id=":138627_0_1" index="1" allow="private emergency authority army vip passenger hov taxi bus coach delivery truck trailer motorcycle evehicle custom1 custom2" speed="33.33" length="7.85" shape="3416.66,3996.98 3415.87,3999.13 3415.27,4000.59 3414.85,4002.09 3414.58,4004.34"/>
    </edge>
    <edge id=":138627_2" function="internal">
        <lane id=":138627_2_0" index="0" allow="private emergency authority army vip passenger hov taxi bus coach delivery truck trailer motorcycle evehicle custom1 custom2" speed="44.44" length="7.06" shape="3413.48,3996.06 3412.91,3998.17 3412.62,3999.65 3412.24,4001.09 3411.38,4003.08"/>
        <lane id=":138627_2_1" index="1" allow="private emergency authority army vip passenger hov taxi bus coach delivery truck trailer motorcycle evehicle custom1 custom2" speed="44.44" length="7.06" shape="3410.31,3995.15 3409.76,3997.17 3409.48,3998.59 3409.11,3999.98 3408.28,4001.89"/>
        <lane id=":138627_2_2" index="2" allow="private emergency authority army vip passenger hov taxi bus coach delivery truck trailer motorcycle evehicle custom1 custom2" speed="44.44" length="7.06" shape="3407.14,3994.23 3406.61,3996.17 3406.34,3997.54 3405.98,3998.87 3405.19,4000.70"/>
    </edge>
    <edge id=":139256_0" function="internal">
        <lane id=":139256_0_0" index="0" allow="private emergency authority army vip passenger hov taxi bus coach delivery truck trailer motorcycle evehicle custom1 custom2" speed="44.44" length="3.54" shape="3048.50,4801.13 3048.63,4800.17 3048.31,4799.46 3048.00,4798.74 3048.11,4797.78"/>
        <lane id=":139256_0_1" index="1" allow="private emergency authority army vip passenger hov taxi bus coach delivery truck trailer motorcycle evehicle custom1 custom2" speed="44.44" length="3.54" shape="3048.50,4801.13 3049.10,4800.37 3049.84,4800.09 3050.57,4799.81 3051.17,4799.04"/>
        <lane id=":139256_0_2" index="2" allow="private emergency authority army vip passenger hov taxi bus coach delivery truck trailer motorcycle evehicle custom1 custom2" speed="44.44" length="3.54" shape="3051.53,4802.43 3052.14,4801.65 3052.88,4801.36 3053.62,4801.08 3054.22,4800.30"/>
        <lane id=":139256_0_3" index="3" allow="private emergency authority army vip passenger hov taxi bus coach delivery truck trailer motorcycle evehicle custom1 custom2" speed="44.44" length="3.54" shape="3054.57,4803.72 3055.18,4802.93 3055.93,4802.64 3056.66,4802.34 3057.27,4801.55"/>
    </edge>
    <edge id=":139300_0" function="internal">
        <lane id=":139300_0_0" index="0" allow="private emergency authority army vip passenger hov taxi bus coach delivery truck trailer motorcycle evehicle custom1 custom2" speed="33.33" length="9.26" shape="1455.85,14434.28 1455.21,14436.96 1454.73,14438.79 1454.39,14440.63 1454.16,14443.36"/>
    </edge>
    <edge id=":139300_1" function="internal">
        <lane id=":139300_1_0" index="0" allow="private emergency authority army vip passenger hov taxi bus coach delivery truck trailer motorcycle evehicle custom1 custom2" speed="44.44" length="9.44" shape="1452.43,14433.85 1452.14,14436.64 1451.67,14438.52 1451.19,14440.40 1450.86,14443.19"/>
        <lane id=":139300_1_1" index="1" allow="private emergency authority army vip passenger hov taxi bus coach delivery truck trailer motorcycle evehicle custom1 custom2" speed="44.44" length="9.44" shape="1449.13,14433.73 1448.85,14436.50 1448.38,14438.37 1447.89,14440.24 1447.57,14443.01"/>
        <lane id=":139300_1_2" index="2" allow="private emergency authority army vip passenger hov taxi bus coach delivery truck trailer motorcycle evehicle custom1 custom2" speed="44.44" length="9.44" shape="1445.83,14433.60 1445.55,14436.36 1445.08,14438.22 1444.60,14440.08 1444.27,14442.84"/>
    </edge>
    <edge id=":139302_0" function="internal">
        <lane id=":139302_0_0" index="0" allow="private emergency authority army vip passenger hov taxi bus coach delivery truck trailer motorcycle evehicle custom1 custom2" speed="22.22" length="0.38" shape="1553.74,14438.27 1553.73,14438.16 1553.72,14438.08 1553.70,14438.01 1553.67,14437.90"/>
    </edge>
    <edge id=":139302_1" function="internal">
        <lane id=":139302_1_0" index="0" allow="private emergency authority army vip passenger hov taxi bus coach delivery truck trailer motorcycle evehicle custom1 custom2" speed="22.22" length="1.16" shape="1556.85,14436.90 1556.92,14437.24 1556.97,14437.47 1557.00,14437.70 1557.03,14438.04"/>
    </edge>
    <edge id=":139305_0" function="internal">
        <lane id=":139305_0_0" index="0" disallow="tram rail_urban rail rail_electric ship" speed="13.89" length="10.25" shape="1558.32,14568.47 1548.88,14564.42"/>
        <lane id=":139305_0_1" index="1" disallow="tram rail_urban rail rail_electric ship" speed="13.89" length="10.25" shape="1559.59,14565.42 1550.19,14561.39"/>
    </edge>
    <edge id=":139305_2" function="internal">
        <lane id=":139305_2_0" index="0" allow="private emergency authority army vip passenger hov taxi bus coach delivery truck trailer motorcycle evehicle custom1 custom2" speed="13.89" length="13.30" shape="1559.59,14565.42 1558.25,14564.17 1557.28,14561.67 1556.66,14557.93 1556.40,14552.94"/>
    </edge>
    <edge id=":139305_3" function="internal">
        <lane id=":139305_3_0" index="0" disallow="tram rail_urban rail rail_electric ship" speed="13.89" length="7.22" shape="1559.70,14552.89 1559.88,14555.34 1560.35,14557.23 1561.10,14558.56 1562.13,14559.33"/>
    </edge>
    <edge id=":139305_4" function="internal">
        <lane id=":139305_4_0" index="0" disallow="tram rail_urban rail rail_electric ship" speed="13.89" length="16.48" shape="1559.70,14552.89 1559.17,14558.18 1557.41,14561.36 1554.42,14562.43 1550.19,14561.39"/>
    </edge>
    <edge id=":139305_5" function="internal">
        <lane id=":139305_5_0" index="0" disallow="tram rail_urban rail rail_electric ship" speed="13.89" length="10.16" shape="1552.81,14555.33 1562.13,14559.33"/>
        <lane id=":139305_5_1" index="1" disallow="tram rail_urban rail rail_electric ship" speed="13.89" length="10.16" shape="1551.50,14558.36 1560.86,14562.38"/>
    </edge>
    <edge id=":1431200927_0" function="internal">
        <lane id=":1431200927_0_0" index="0" disallow="tram rail_urban rail rail_electric ship" speed="15.28" length="0.52" shape="3660.06,3714.95 3659.47,3714.83"/>
        <lane id=":1431200927_0_1" index="1" disallow="tram rail_urban rail rail_electric ship" speed="15.28" length="0.52" shape="3660.65,3711.70 3660.23,3711.62"/>
    </edge>
    <edge id=":1431200927_2" function="internal">
        <lane id=":1431200927_2_0" index="0" disallow="tram rail_urban rail rail_electric ship" speed="15.28" length="0.18" shape="3661.75,3705.19 3661.84,3705.21"/>
        <lane id=":1431200927_2_1" index="1" disallow="tram rail_urban rail rail_electric ship" speed="15.28" length="0.18" shape="3660.99,3708.40 3661.24,3708.46"/>
    </edge>
    <edge id=":1432748985_0" function="internal">
        <lane id=":1432748985_0_0" index="0" disallow="tram rail_urban rail rail_electric ship" speed="15.28" length="0.30" shape="3402.29,6073.78 3401.99,6073.78"/>
    </edge>
    <edge id=":1432748985_1" function="internal">
        <lane id=":1432748985_1_0" index="0" disallow="tram rail_urban rail rail_electric ship" speed="15.28" length="0.30" shape="3401.93,6070.48 3402.23,6070.48"/>
    </edge>
    <edge id=":1434930485_0" function="internal">
        <lane id=":1434930485_0_0" index="0" disallow="tram rail_urban rail rail_electric ship" speed="18.06" length="6.54" shape="3407.16,1714.14 3405.52,1712.76 3404.02,1711.97 3402.64,1711.78 3401.40,1712.19"/>
    </edge>
    <edge id=":1434930485_1" function="internal">
        <lane id=":1434930485_1_0" index="0" disallow="tram rail_urban rail rail_electric ship" speed="18.06" length="12.21" shape="3407.16,1714.14 3405.02,1711.34 3404.56,1708.80 3405.79,1706.54 3408.71,1704.54"/>
    </edge>
    <edge id=":1434930485_2" function="internal">
        <lane id=":1434930485_2_0" index="0" disallow="tram rail_urban rail rail_electric ship" speed="18.06" length="5.46" shape="3410.17,1707.50 3408.87,1708.39 3408.32,1709.40 3408.52,1710.54 3409.48,1711.79"/>
    </edge>
    <edge id=":1434930485_3" function="internal">
        <lane id=":1434930485_3_0" index="0" disallow="tram rail_urban rail rail_electric ship" speed="22.22" length="9.94" shape="3410.17,1707.50 3401.40,1712.19"/>
    </edge>
    <edge id=":1434930485_4" function="internal">
        <lane id=":1434930485_4_0" index="0" disallow="tram rail_urban rail rail_electric ship" speed="22.22" length="10.20" shape="3399.71,1709.35 3408.71,1704.54"/>
    </edge>
    <edge id=":1434930485_5" function="internal">
        <lane id=":1434930485_5_0" index="0" disallow="tram rail_urban rail rail_electric ship" speed="18.06" length="5.04" shape="3399.71,1709.35 3402.02,1708.49 3404.42,1708.61 3404.58,1708.68"/>
    </edge>
    <edge id=":1434930485_6" function="internal">
        <lane id=":1434930485_6_0" index="0" speed="18.06" length="5.86" shape="3404.58,1708.68 3406.91,1709.71 3409.48,1711.79"/>
    </edge>
    <edge id=":1435323862_0" function="internal">
        <lane id=":1435323862_0_0" index="0" disallow="tram rail_urban rail rail_electric ship" speed="15.28" length="4.50" shape="2786.48,3060.20 2786.97,3055.73"/>
    </edge>
    <edge id=":1435323862_1" function="internal">
        <lane id=":1435323862_1_0" index="0" disallow="tram rail_urban rail rail_electric ship" speed="15.28" length="3.62" shape="2789.50,3053.61 2793.85,3053.59"/>
        <lane id=":1435323862_1_1" index="1" disallow="tram rail_urban rail rail_electric ship" speed="15.28" length="3.62" shape="2789.50,3053.61 2791.39,3055.80"/>
    </edge>
    <edge id=":1459204115_0" function="internal">
        <lane id=":1459204115_0_0" index="0" disallow="tram rail_urban rail rail_electric ship" speed="22.23" length="0.31" shape="2745.59,11298.64 2745.39,11298.41"/>
    </edge>
    <edge id=":1459204115_1" function="internal">
        <lane id=":1459204115_1_0" index="0" disallow="tram rail_urban rail rail_electric ship" speed="22.23" length="0.29" shape="2747.92,11296.29 2748.10,11296.50"/>
    </edge>
    <edge id=":1467944212_0" function="internal">
        <lane id=":1467944212_0_0" index="0" allow="private emergency authority army vip passenger hov taxi bus coach delivery truck trailer motorcycle evehicle custom1 custom2" speed="83.33" length="3.01" shape="4153.25,2048.35 4150.94,2046.43"/>