
<configuration>
   <input>
       <net-file value="A9.net.xml"/>
       <route-files value="Flow.rou.xml"/>
       <gui-settings-file value="A9.settings.xml"/>
   </input>
	<processing>
        <time-to-teleport value="2"/> <!-- required to teleport halting cars in the specified time interval-->
		<lateral-resolution value="0.4"/>
    </processing>
	<traci_server>
		<remote-port value="1122"/>
	</traci_server>
</configuration>